/*--------------------------------*- C++ -*----------------------------------*\
  =========                 |
  \\      /  F ield         | OpenFOAM: The Open Source CFD Toolbox
   \\    /   O peration     | Website:  https://openfoam.org
    \\  /    A nd           | Version:  12
     \\/     M anipulation  |
\*---------------------------------------------------------------------------*/
FoamFile
{
    format      ascii;
    class       extendedFeatureEdgeMesh;
    location    "constant/extendedFeatureEdgeMesh";
    object      neighborhood.extendedFeatureEdgeMesh;
}
// * * * * * * * * * * * * * * * * * * * * * * * * * * * * * * * * * * * * * //

// points

64
(
(2.90858 2.83787 0)
(2.90858 2.83787 0.1)
(2.83787 2.90858 0.1)
(2.83787 2.90858 0)
(2.90858 2.97929 0.1)
(2.90858 2.97929 0)
(2.97929 2.90858 0.1)
(2.97929 2.90858 0)
(3.19142 3.12071 0)
(3.19142 3.12071 0.1)
(3.12071 3.19142 0.1)
(3.12071 3.19142 0)
(3.19142 3.26213 0.1)
(3.19142 3.26213 0)
(3.26213 3.19142 0.1)
(3.26213 3.19142 0)
(3.05 3.26213 0)
(3.05 3.26213 0.1)
(2.97929 3.33284 0.1)
(2.97929 3.33284 0)
(3.05 3.40355 0.1)
(3.05 3.40355 0)
(3.12071 3.33284 0.1)
(3.12071 3.33284 0)
(3.33284 2.97929 0)
(3.33284 2.97929 0.1)
(3.26213 3.05 0.1)
(3.26213 3.05 0)
(3.33284 3.12071 0.1)
(3.33284 3.12071 0)
(3.40355 3.05 0.1)
(3.40355 3.05 0)
(2.90858 3.12071 0)
(2.90858 3.12071 0.1)
(2.83787 3.19142 0.1)
(2.83787 3.19142 0)
(2.90858 3.26213 0.1)
(2.90858 3.26213 0)
(2.97929 3.19142 0.1)
(2.97929 3.19142 0)
(3.19142 2.83787 0)
(3.19142 2.83787 0.1)
(3.12071 2.90858 0.1)
(3.12071 2.90858 0)
(3.19142 2.97929 0.1)
(3.19142 2.97929 0)
(3.26213 2.90858 0.1)
(3.26213 2.90858 0)
(3.05 2.69645 0)
(3.05 2.69645 0.1)
(2.97929 2.76716 0.1)
(2.97929 2.76716 0)
(3.05 2.83787 0.1)
(3.05 2.83787 0)
(3.12071 2.76716 0.1)
(3.12071 2.76716 0)
(2.76716 2.97929 0)
(2.76716 2.97929 0.1)
(2.69645 3.05 0.1)
(2.69645 3.05 0)
(2.76716 3.12071 0.1)
(2.76716 3.12071 0)
(2.83787 3.05 0.1)
(2.83787 3.05 0)
)

// edges

96
(
(0 1)
(1 2)
(2 3)
(3 0)
(2 4)
(4 5)
(5 3)
(4 6)
(6 7)
(7 5)
(6 1)
(0 7)
(8 9)
(9 10)
(10 11)
(11 8)
(10 12)
(12 13)
(13 11)
(12 14)
(14 15)
(15 13)
(14 9)
(8 15)
(16 17)
(17 18)
(18 19)
(19 16)
(18 20)
(20 21)
(21 19)
(20 22)
(22 23)
(23 21)
(22 17)
(16 23)
(24 25)
(25 26)
(26 27)
(27 24)
(26 28)
(28 29)
(29 27)
(28 30)
(30 31)
(31 29)
(30 25)
(24 31)
(32 33)
(33 34)
(34 35)
(35 32)
(34 36)
(36 37)
(37 35)
(36 38)
(38 39)
(39 37)
(38 33)
(32 39)
(40 41)
(41 42)
(42 43)
(43 40)
(42 44)
(44 45)
(45 43)
(44 46)
(46 47)
(47 45)
(46 41)
(40 47)
(48 49)
(49 50)
(50 51)
(51 48)
(50 52)
(52 53)
(53 51)
(52 54)
(54 55)
(55 53)
(54 49)
(48 55)
(56 57)
(57 58)
(58 59)
(59 56)
(58 60)
(60 61)
(61 59)
(60 62)
(62 63)
(63 61)
(62 57)
(56 63)
)

// concaveStart mixedStart nonFeatureStart
64 64 64
// internalStart flatStart openStart multipleStart
96 96 96 96
// normals

96
(
(-0.707107 -0.707107 0)
(0.707107 -0.707107 0)
(0 0 1)
(-0.707107 -0.707107 0)
(-0.707107 0.707107 0)
(0 0 -1)
(-0.707107 0.707107 0)
(0.707107 0.707107 -0)
(0 0 -1)
(0 0 1)
(0.707107 0.707107 0)
(0.707107 -0.707107 0)
(-0.707107 -0.707107 0)
(0.707107 -0.707107 0)
(0 0 1)
(-0.707107 -0.707107 0)
(-0.707107 0.707107 0)
(0 0 -1)
(-0.707107 0.707107 0)
(0.707107 0.707107 -0)
(0 0 -1)
(0 0 1)
(0.707107 0.707107 0)
(0.707107 -0.707107 0)
(-0.707107 -0.707107 0)
(0.707107 -0.707107 0)
(0 0 1)
(-0.707107 -0.707107 0)
(-0.707108 0.707106 0)
(0 0 -1)
(-0.707108 0.707106 0)
(0.707108 0.707106 -0)
(0 0 -1)
(0 0 1)
(0.707108 0.707106 0)
(0.707107 -0.707107 0)
(-0.707107 -0.707107 0)
(0.707107 -0.707107 0)
(0 0 1)
(-0.707107 -0.707107 0)
(-0.707107 0.707107 0)
(0 0 -1)
(-0.707107 0.707107 0)
(0.707107 0.707107 -0)
(0 0 -1)
(0 0 1)
(0.707107 0.707107 0)
(0.707107 -0.707107 0)
(-0.707107 -0.707107 0)
(0.707107 -0.707107 0)
(0 0 1)
(-0.707107 -0.707107 0)
(-0.707107 0.707107 0)
(0 0 -1)
(-0.707107 0.707107 0)
(0.707107 0.707107 -0)
(0 0 -1)
(0 0 1)
(0.707107 0.707107 0)
(0.707107 -0.707107 0)
(-0.707107 -0.707107 0)
(0.707107 -0.707107 0)
(0 0 1)
(-0.707107 -0.707107 0)
(-0.707107 0.707107 0)
(0 0 -1)
(-0.707107 0.707107 0)
(0.707107 0.707107 -0)
(0 0 -1)
(0 0 1)
(0.707107 0.707107 0)
(0.707107 -0.707107 0)
(-0.707107 -0.707107 0)
(0.707107 -0.707107 0)
(0 0 1)
(-0.707107 -0.707107 0)
(-0.707107 0.707107 0)
(0 0 -1)
(-0.707107 0.707107 0)
(0.707107 0.707107 -0)
(0 0 -1)
(0 0 1)
(0.707107 0.707107 0)
(0.707107 -0.707107 0)
(-0.707107 -0.707107 0)
(0.707107 -0.707107 0)
(0 0 1)
(-0.707107 -0.707107 0)
(-0.707107 0.707107 0)
(0 0 -1)
(-0.707107 0.707107 0)
(0.707107 0.707107 -0)
(0 0 -1)
(0 0 1)
(0.707107 0.707107 0)
(0.707107 -0.707107 0)
)

// normal volume types

96
(
0
0
0
0
0
0
0
0
0
0
0
0
0
0
0
0
0
0
0
0
0
0
0
0
0
0
0
0
0
0
0
0
0
0
0
0
0
0
0
0
0
0
0
0
0
0
0
0
0
0
0
0
0
0
0
0
0
0
0
0
0
0
0
0
0
0
0
0
0
0
0
0
0
0
0
0
0
0
0
0
0
0
0
0
0
0
0
0
0
0
0
0
0
0
0
0
)

// normalDirections

96
(
2(1 -1)
2(1 -1)
2(1 -1)
2(1 -1)
2(1 -1)
2(1 -1)
2(1 -1)
2(1 -1)
2(1 -1)
2(1 -1)
2(1 -1)
2(1 -1)
2(1 -1)
2(1 -1)
2(1 -1)
2(1 -1)
2(1 -1)
2(1 -1)
2(1 -1)
2(1 -1)
2(1 -1)
2(1 -1)
2(1 -1)
2(1 -1)
2(1 -1)
2(1 -1)
2(1 -1)
2(1 -1)
2(1 -1)
2(1 -1)
2(1 -1)
2(1 -1)
2(1 -1)
2(1 -1)
2(1 -1)
2(1 -1)
2(1 -1)
2(1 -1)
2(1 -1)
2(1 -1)
2(1 -1)
2(1 -1)
2(1 -1)
2(1 -1)
2(1 -1)
2(1 -1)
2(1 -1)
2(1 -1)
2(1 -1)
2(1 -1)
2(1 -1)
2(1 -1)
2(1 -1)
2(1 -1)
2(1 -1)
2(1 -1)
2(1 -1)
2(1 -1)
2(1 -1)
2(1 -1)
2(1 -1)
2(1 -1)
2(1 -1)
2(1 -1)
2(1 -1)
2(1 -1)
2(1 -1)
2(1 -1)
2(1 -1)
2(1 -1)
2(1 -1)
2(1 -1)
2(1 -1)
2(1 -1)
2(1 -1)
2(1 -1)
2(1 -1)
2(1 -1)
2(1 -1)
2(1 -1)
2(1 -1)
2(1 -1)
2(1 -1)
2(1 -1)
2(1 -1)
2(1 -1)
2(1 -1)
2(1 -1)
2(1 -1)
2(1 -1)
2(1 -1)
2(1 -1)
2(1 -1)
2(1 -1)
2(1 -1)
2(1 -1)
)

// edgeNormals

96
(
2(0 1)
2(0 2)
2(3 4)
2(3 5)
2(4 2)
2(6 7)
2(6 8)
2(7 9)
2(10 11)
2(10 8)
2(11 9)
2(1 5)
2(12 13)
2(12 14)
2(15 16)
2(15 17)
2(16 14)
2(18 19)
2(18 20)
2(19 21)
2(22 23)
2(22 20)
2(23 21)
2(13 17)
2(24 25)
2(24 26)
2(27 28)
2(27 29)
2(28 26)
2(30 31)
2(30 32)
2(31 33)
2(34 35)
2(34 32)
2(35 33)
2(25 29)
2(36 37)
2(36 38)
2(39 40)
2(39 41)
2(40 38)
2(42 43)
2(42 44)
2(43 45)
2(46 47)
2(46 44)
2(47 45)
2(37 41)
2(48 49)
2(48 50)
2(51 52)
2(51 53)
2(52 50)
2(54 55)
2(54 56)
2(55 57)
2(58 59)
2(58 56)
2(59 57)
2(49 53)
2(60 61)
2(60 62)
2(63 64)
2(63 65)
2(64 62)
2(66 67)
2(66 68)
2(67 69)
2(70 71)
2(70 68)
2(71 69)
2(61 65)
2(72 73)
2(72 74)
2(75 76)
2(75 77)
2(76 74)
2(78 79)
2(78 80)
2(79 81)
2(82 83)
2(82 80)
2(83 81)
2(73 77)
2(84 85)
2(84 86)
2(87 88)
2(87 89)
2(88 86)
2(90 91)
2(90 92)
2(91 93)
2(94 95)
2(94 92)
2(95 93)
2(85 89)
)

// featurePointNormals

64
(
3(0 1 5)
3(0 1 2)
3(0 2 4)
3(3 4 5)
3(4 2 7)
3(6 7 8)
3(7 9 11)
3(10 11 8)
3(12 13 17)
3(12 13 14)
3(12 14 16)
3(15 16 17)
3(16 14 19)
3(18 19 20)
3(19 21 23)
3(22 23 20)
3(24 25 29)
3(24 25 26)
3(24 26 28)
3(27 28 29)
3(28 26 31)
3(30 31 32)
3(31 33 35)
3(34 35 32)
3(36 37 41)
3(36 37 38)
3(36 38 40)
3(39 40 41)
3(40 38 43)
3(42 43 44)
3(43 45 47)
3(46 47 44)
3(48 49 53)
3(48 49 50)
3(48 50 52)
3(51 52 53)
3(52 50 55)
3(54 55 56)
3(55 57 59)
3(58 59 56)
3(60 61 65)
3(60 61 62)
3(60 62 64)
3(63 64 65)
3(64 62 67)
3(66 67 68)
3(67 69 71)
3(70 71 68)
3(72 73 77)
3(72 73 74)
3(72 74 76)
3(75 76 77)
3(76 74 79)
3(78 79 80)
3(79 81 83)
3(82 83 80)
3(84 85 89)
3(84 85 86)
3(84 86 88)
3(87 88 89)
3(88 86 91)
3(90 91 92)
3(91 93 95)
3(94 95 92)
)

// featurePointEdges

64
(
3(3 11 0)
3(0 10 1)
3(2 4 1)
3(2 6 3)
3(5 7 4)
3(5 9 6)
3(8 10 7)
3(8 11 9)
3(15 23 12)
3(12 22 13)
3(14 16 13)
3(14 18 15)
3(17 19 16)
3(17 21 18)
3(20 22 19)
3(20 23 21)
3(27 35 24)
3(24 34 25)
3(26 28 25)
3(26 30 27)
3(29 31 28)
3(29 33 30)
3(32 34 31)
3(32 35 33)
3(39 47 36)
3(36 46 37)
3(38 40 37)
3(38 42 39)
3(41 43 40)
3(41 45 42)
3(44 46 43)
3(44 47 45)
3(51 59 48)
3(48 58 49)
3(50 52 49)
3(50 54 51)
3(53 55 52)
3(53 57 54)
3(56 58 55)
3(56 59 57)
3(63 71 60)
3(60 70 61)
3(62 64 61)
3(62 66 63)
3(65 67 64)
3(65 69 66)
3(68 70 67)
3(68 71 69)
3(75 83 72)
3(72 82 73)
3(74 76 73)
3(74 78 75)
3(77 79 76)
3(77 81 78)
3(80 82 79)
3(80 83 81)
3(87 95 84)
3(84 94 85)
3(86 88 85)
3(86 90 87)
3(89 91 88)
3(89 93 90)
3(92 94 91)
3(92 95 93)
)

// regionEdges
0()


// ************************************************************************* //
