/*--------------------------------*- C++ -*----------------------------------*\
  =========                 |
  \\      /  F ield         | OpenFOAM: The Open Source CFD Toolbox
   \\    /   O peration     | Website:  https://openfoam.org
    \\  /    A nd           | Version:  12
     \\/     M anipulation  |
\*---------------------------------------------------------------------------*/
FoamFile
{
    format      ascii;
    class       featureEdgeMesh;
    location    "constant/triSurface";
    object      neighborhood.eMesh;
}
// * * * * * * * * * * * * * * * * * * * * * * * * * * * * * * * * * * * * * //


// points:

64
(
(2.85849 2.8817 0)
(2.85849 2.8817 0.2)
(2.80849 2.9683 0.2)
(2.80849 2.9683 0)
(2.8951 3.0183 0.2)
(2.8951 3.0183 0)
(2.9451 2.9317 0.2)
(2.9451 2.9317 0)
(3.2049 3.0817 0)
(3.2049 3.0817 0.2)
(3.1549 3.1683 0.2)
(3.1549 3.1683 0)
(3.24151 3.2183 0.2)
(3.24151 3.2183 0)
(3.29151 3.1317 0.2)
(3.29151 3.1317 0)
(3.1049 3.2549 0)
(3.1049 3.2549 0.2)
(3.0549 3.34151 0.2)
(3.0549 3.34151 0)
(3.14151 3.39151 0.2)
(3.14151 3.39151 0)
(3.19151 3.3049 0.2)
(3.19151 3.3049 0)
(3.3049 2.90849 0)
(3.3049 2.90849 0.2)
(3.2549 2.9951 0.2)
(3.2549 2.9951 0)
(3.34151 3.0451 0.2)
(3.34151 3.0451 0)
(3.39151 2.95849 0.2)
(3.39151 2.95849 0)
(2.9317 3.1549 0)
(2.9317 3.1549 0.2)
(2.8817 3.24151 0.2)
(2.8817 3.24151 0)
(2.9683 3.29151 0.2)
(2.9683 3.29151 0)
(3.0183 3.2049 0.2)
(3.0183 3.2049 0)
(3.1317 2.80849 0)
(3.1317 2.80849 0.2)
(3.0817 2.8951 0.2)
(3.0817 2.8951 0)
(3.1683 2.9451 0.2)
(3.1683 2.9451 0)
(3.2183 2.85849 0.2)
(3.2183 2.85849 0)
(2.95849 2.70849 0)
(2.95849 2.70849 0.2)
(2.90849 2.7951 0.2)
(2.90849 2.7951 0)
(2.9951 2.8451 0.2)
(2.9951 2.8451 0)
(3.0451 2.75849 0.2)
(3.0451 2.75849 0)
(2.75849 3.0549 0)
(2.75849 3.0549 0.2)
(2.70849 3.14151 0.2)
(2.70849 3.14151 0)
(2.7951 3.19151 0.2)
(2.7951 3.19151 0)
(2.8451 3.1049 0.2)
(2.8451 3.1049 0)
)


// edges:

96
(
(0 1)
(1 2)
(2 3)
(3 0)
(2 4)
(4 5)
(5 3)
(4 6)
(6 7)
(7 5)
(6 1)
(0 7)
(8 9)
(9 10)
(10 11)
(11 8)
(10 12)
(12 13)
(13 11)
(12 14)
(14 15)
(15 13)
(14 9)
(8 15)
(16 17)
(17 18)
(18 19)
(19 16)
(18 20)
(20 21)
(21 19)
(20 22)
(22 23)
(23 21)
(22 17)
(16 23)
(24 25)
(25 26)
(26 27)
(27 24)
(26 28)
(28 29)
(29 27)
(28 30)
(30 31)
(31 29)
(30 25)
(24 31)
(32 33)
(33 34)
(34 35)
(35 32)
(34 36)
(36 37)
(37 35)
(36 38)
(38 39)
(39 37)
(38 33)
(32 39)
(40 41)
(41 42)
(42 43)
(43 40)
(42 44)
(44 45)
(45 43)
(44 46)
(46 47)
(47 45)
(46 41)
(40 47)
(48 49)
(49 50)
(50 51)
(51 48)
(50 52)
(52 53)
(53 51)
(52 54)
(54 55)
(55 53)
(54 49)
(48 55)
(56 57)
(57 58)
(58 59)
(59 56)
(58 60)
(60 61)
(61 59)
(60 62)
(62 63)
(63 61)
(62 57)
(56 63)
)

// * * * * * * * * * * * * * * * * * * * * * * * * * * * * * * * * * * * * * //


// ************************************************************************* //
