/*--------------------------------*- C++ -*----------------------------------*\
  =========                 |
  \\      /  F ield         | OpenFOAM: The Open Source CFD Toolbox
   \\    /   O peration     | Website:  https://openfoam.org
    \\  /    A nd           | Version:  12
     \\/     M anipulation  |
\*---------------------------------------------------------------------------*/
FoamFile
{
    format      ascii;
    class       featureEdgeMesh;
    location    "constant/triSurface";
    object      neighborhood.eMesh;
}
// * * * * * * * * * * * * * * * * * * * * * * * * * * * * * * * * * * * * * //


// points:

64
(
(2.82146 2.937 0)
(2.82146 2.937 0.5)
(2.79558 3.03359 0.5)
(2.79558 3.03359 0)
(2.89217 3.05947 0.5)
(2.89217 3.05947 0)
(2.91805 2.96288 0.5)
(2.91805 2.96288 0)
(3.20783 3.04053 0)
(3.20783 3.04053 0.5)
(3.18195 3.13712 0.5)
(3.18195 3.13712 0)
(3.27854 3.163 0.5)
(3.27854 3.163 0)
(3.30442 3.06641 0.5)
(3.30442 3.06641 0)
(3.15607 3.23371 0)
(3.15607 3.23371 0.5)
(3.13018 3.3303 0.5)
(3.13018 3.3303 0)
(3.22678 3.35619 0.5)
(3.22678 3.35619 0)
(3.25266 3.25959 0.5)
(3.25266 3.25959 0)
(3.25959 2.84734 0)
(3.25959 2.84734 0.5)
(3.23371 2.94393 0.5)
(3.23371 2.94393 0)
(3.3303 2.96982 0.5)
(3.3303 2.96982 0)
(3.35619 2.87322 0.5)
(3.35619 2.87322 0)
(2.96288 3.18195 0)
(2.96288 3.18195 0.5)
(2.937 3.27854 0.5)
(2.937 3.27854 0)
(3.03359 3.30442 0.5)
(3.03359 3.30442 0)
(3.05947 3.20783 0.5)
(3.05947 3.20783 0)
(3.06641 2.79558 0)
(3.06641 2.79558 0.5)
(3.04053 2.89217 0.5)
(3.04053 2.89217 0)
(3.13712 2.91805 0.5)
(3.13712 2.91805 0)
(3.163 2.82146 0.5)
(3.163 2.82146 0)
(2.87322 2.74381 0)
(2.87322 2.74381 0.5)
(2.84734 2.84041 0.5)
(2.84734 2.84041 0)
(2.94393 2.86629 0.5)
(2.94393 2.86629 0)
(2.96982 2.7697 0.5)
(2.96982 2.7697 0)
(2.7697 3.13018 0)
(2.7697 3.13018 0.5)
(2.74381 3.22678 0.5)
(2.74381 3.22678 0)
(2.84041 3.25266 0.5)
(2.84041 3.25266 0)
(2.86629 3.15607 0.5)
(2.86629 3.15607 0)
)


// edges:

96
(
(0 1)
(1 2)
(2 3)
(3 0)
(2 4)
(4 5)
(5 3)
(4 6)
(6 7)
(7 5)
(6 1)
(0 7)
(8 9)
(9 10)
(10 11)
(11 8)
(10 12)
(12 13)
(13 11)
(12 14)
(14 15)
(15 13)
(14 9)
(8 15)
(16 17)
(17 18)
(18 19)
(19 16)
(18 20)
(20 21)
(21 19)
(20 22)
(22 23)
(23 21)
(22 17)
(16 23)
(24 25)
(25 26)
(26 27)
(27 24)
(26 28)
(28 29)
(29 27)
(28 30)
(30 31)
(31 29)
(30 25)
(24 31)
(32 33)
(33 34)
(34 35)
(35 32)
(34 36)
(36 37)
(37 35)
(36 38)
(38 39)
(39 37)
(38 33)
(32 39)
(40 41)
(41 42)
(42 43)
(43 40)
(42 44)
(44 45)
(45 43)
(44 46)
(46 47)
(47 45)
(46 41)
(40 47)
(48 49)
(49 50)
(50 51)
(51 48)
(50 52)
(52 53)
(53 51)
(52 54)
(54 55)
(55 53)
(54 49)
(48 55)
(56 57)
(57 58)
(58 59)
(59 56)
(58 60)
(60 61)
(61 59)
(60 62)
(62 63)
(63 61)
(62 57)
(56 63)
)

// * * * * * * * * * * * * * * * * * * * * * * * * * * * * * * * * * * * * * //


// ************************************************************************* //
