/*--------------------------------*- C++ -*----------------------------------*\
  =========                 |
  \\      /  F ield         | OpenFOAM: The Open Source CFD Toolbox
   \\    /   O peration     | Website:  https://openfoam.org
    \\  /    A nd           | Version:  12
     \\/     M anipulation  |
\*---------------------------------------------------------------------------*/
FoamFile
{
    format      ascii;
    class       featureEdgeMesh;
    location    "constant/triSurface";
    object      neighborhood.eMesh;
}
// * * * * * * * * * * * * * * * * * * * * * * * * * * * * * * * * * * * * * //


// points:

64
(
(2.90858 2.83787 0)
(2.90858 2.83787 0.5)
(2.83787 2.90858 0.5)
(2.83787 2.90858 0)
(2.90858 2.97929 0.5)
(2.90858 2.97929 0)
(2.97929 2.90858 0.5)
(2.97929 2.90858 0)
(3.19142 3.12071 0)
(3.19142 3.12071 0.5)
(3.12071 3.19142 0.5)
(3.12071 3.19142 0)
(3.19142 3.26213 0.5)
(3.19142 3.26213 0)
(3.26213 3.19142 0.5)
(3.26213 3.19142 0)
(3.05 3.26213 0)
(3.05 3.26213 0.5)
(2.97929 3.33284 0.5)
(2.97929 3.33284 0)
(3.05 3.40355 0.5)
(3.05 3.40355 0)
(3.12071 3.33284 0.5)
(3.12071 3.33284 0)
(3.33284 2.97929 0)
(3.33284 2.97929 0.5)
(3.26213 3.05 0.5)
(3.26213 3.05 0)
(3.33284 3.12071 0.5)
(3.33284 3.12071 0)
(3.40355 3.05 0.5)
(3.40355 3.05 0)
(2.90858 3.12071 0)
(2.90858 3.12071 0.5)
(2.83787 3.19142 0.5)
(2.83787 3.19142 0)
(2.90858 3.26213 0.5)
(2.90858 3.26213 0)
(2.97929 3.19142 0.5)
(2.97929 3.19142 0)
(3.19142 2.83787 0)
(3.19142 2.83787 0.5)
(3.12071 2.90858 0.5)
(3.12071 2.90858 0)
(3.19142 2.97929 0.5)
(3.19142 2.97929 0)
(3.26213 2.90858 0.5)
(3.26213 2.90858 0)
(3.05 2.69645 0)
(3.05 2.69645 0.5)
(2.97929 2.76716 0.5)
(2.97929 2.76716 0)
(3.05 2.83787 0.5)
(3.05 2.83787 0)
(3.12071 2.76716 0.5)
(3.12071 2.76716 0)
(2.76716 2.97929 0)
(2.76716 2.97929 0.5)
(2.69645 3.05 0.5)
(2.69645 3.05 0)
(2.76716 3.12071 0.5)
(2.76716 3.12071 0)
(2.83787 3.05 0.5)
(2.83787 3.05 0)
)


// edges:

96
(
(0 1)
(1 2)
(2 3)
(3 0)
(2 4)
(4 5)
(5 3)
(4 6)
(6 7)
(7 5)
(6 1)
(0 7)
(8 9)
(9 10)
(10 11)
(11 8)
(10 12)
(12 13)
(13 11)
(12 14)
(14 15)
(15 13)
(14 9)
(8 15)
(16 17)
(17 18)
(18 19)
(19 16)
(18 20)
(20 21)
(21 19)
(20 22)
(22 23)
(23 21)
(22 17)
(16 23)
(24 25)
(25 26)
(26 27)
(27 24)
(26 28)
(28 29)
(29 27)
(28 30)
(30 31)
(31 29)
(30 25)
(24 31)
(32 33)
(33 34)
(34 35)
(35 32)
(34 36)
(36 37)
(37 35)
(36 38)
(38 39)
(39 37)
(38 33)
(32 39)
(40 41)
(41 42)
(42 43)
(43 40)
(42 44)
(44 45)
(45 43)
(44 46)
(46 47)
(47 45)
(46 41)
(40 47)
(48 49)
(49 50)
(50 51)
(51 48)
(50 52)
(52 53)
(53 51)
(52 54)
(54 55)
(55 53)
(54 49)
(48 55)
(56 57)
(57 58)
(58 59)
(59 56)
(58 60)
(60 61)
(61 59)
(60 62)
(62 63)
(63 61)
(62 57)
(56 63)
)

// * * * * * * * * * * * * * * * * * * * * * * * * * * * * * * * * * * * * * //


// ************************************************************************* //
